Version 4
SHEET 1 1720 760
WIRE -80 -400 -272 -400
WIRE 16 -400 -80 -400
WIRE 112 -400 96 -400
WIRE 192 -400 112 -400
WIRE 432 -400 288 -400
WIRE 608 -400 432 -400
WIRE 800 -400 608 -400
WIRE 912 -400 800 -400
WIRE 800 -384 800 -400
WIRE 912 -368 912 -400
WIRE -272 -352 -272 -400
WIRE 608 -352 608 -400
WIRE 176 -304 144 -304
WIRE 272 -304 272 -352
WIRE 272 -304 256 -304
WIRE 144 -288 144 -304
WIRE 576 -288 528 -288
WIRE 272 -256 272 -304
WIRE 576 -208 576 -288
WIRE 672 -208 576 -208
WIRE 848 -192 736 -192
WIRE 976 -192 928 -192
WIRE 1184 -192 976 -192
WIRE 1536 -192 1536 -224
WIRE 1536 -192 1408 -192
WIRE 432 -176 432 -400
WIRE 512 -176 432 -176
WIRE 608 -176 608 -272
WIRE 672 -176 608 -176
WIRE 608 -144 608 -176
WIRE 512 -128 512 -176
WIRE 1184 -128 1120 -128
WIRE 1536 -128 1536 -192
WIRE 1536 -128 1408 -128
WIRE 272 -112 272 -176
WIRE 272 -112 224 -112
WIRE 320 -112 272 -112
WIRE 1536 -96 1536 -128
WIRE 976 -80 976 -192
WIRE 976 -80 928 -80
WIRE 1456 -64 1408 -64
WIRE 16 -48 16 -400
WIRE 112 -48 112 -400
WIRE 224 -48 224 -112
WIRE 320 -48 320 -112
WIRE 432 -48 432 -176
WIRE -80 0 -80 -400
WIRE -80 0 -144 0
WIRE -80 32 -80 0
WIRE -48 32 -80 32
WIRE 512 48 512 -64
WIRE 512 48 464 48
WIRE -144 96 -144 80
WIRE -48 96 -144 96
WIRE 528 144 464 144
WIRE 640 144 528 144
WIRE 528 160 528 144
WIRE 528 256 528 240
WIRE 528 256 464 256
WIRE 784 256 720 256
WIRE 912 256 864 256
WIRE 1088 256 976 256
WIRE 1232 272 1152 272
WIRE 720 288 720 256
WIRE 720 288 704 288
WIRE 912 288 912 256
WIRE 1088 288 912 288
WIRE 976 304 976 256
WIRE -48 336 -128 336
WIRE 512 336 464 336
WIRE 608 336 512 336
WIRE 720 336 720 288
WIRE 752 336 720 336
WIRE -128 352 -128 336
WIRE 864 352 864 256
WIRE 864 352 816 352
WIRE 608 368 608 336
WIRE 752 368 608 368
WIRE 64 416 64 400
WIRE 64 416 -16 416
WIRE 512 416 512 336
WIRE -16 432 -16 416
WIRE 336 432 336 400
WIRE 912 448 912 288
WIRE 1088 448 912 448
WIRE 1232 464 1152 464
WIRE 1088 480 976 480
WIRE 976 496 976 480
FLAG 144 -224 0
FLAG 640 208 0
FLAG 336 512 0
FLAG 208 400 0
FLAG -16 512 0
FLAG -128 416 0
FLAG -272 -272 0
FLAG 800 -304 0
FLAG 912 -304 0
FLAG 512 496 0
FLAG -16 672 0
FLAG -16 592 5v
FLAG 784 320 5v
FLAG 96 672 n5v
FLAG 96 592 0
FLAG 784 384 n5v
FLAG 624 288 0
FLAG 608 -64 0
FLAG 704 -224 5v
FLAG 704 -160 n5v
FLAG 1408 -256 5v
FLAG 1184 -64 5v
FLAG 1536 -304 5v
FLAG 1120 240 5v
FLAG 1120 432 5v
FLAG 976 576 0
FLAG 976 384 0
FLAG 1120 304 n5v
FLAG 1120 496 n5v
FLAG 528 -208 0
FLAG 1184 -256 n5v
FLAG 1456 0 n5v
FLAG 1536 -32 n5v
FLAG 1232 464 soft_start
FLAG 848 -80 soft_start
SYMBOL PowerProducts\\LTC7000 208 176 R0
SYMATTR InstName U1
SYMBOL res 0 -384 R270
WINDOW 0 32 56 VTop 2
WINDOW 3 0 56 VBottom 2
SYMATTR InstName R1
SYMATTR Value 0.0015
SYMBOL nmos 192 -352 R270
SYMATTR InstName M1
SYMATTR Value IPB107N20N3
SYMBOL res 272 -320 R90
WINDOW 0 0 56 VBottom 2
WINDOW 3 32 56 VTop 2
SYMATTR InstName R2
SYMATTR Value 200
SYMBOL cap 128 -288 R0
SYMATTR InstName C1
SYMATTR Value 10000p
SYMBOL res 288 -160 R180
WINDOW 0 36 76 Left 2
WINDOW 3 36 40 Left 2
SYMATTR InstName R3
SYMATTR Value 100k
SYMBOL cap 496 -128 R0
SYMATTR InstName C2
SYMATTR Value 0.1µ
SYMBOL res 512 144 R0
SYMATTR InstName R4
SYMATTR Value 100k
SYMBOL cap 624 144 R0
SYMATTR InstName C3
SYMATTR Value 1µ
SYMBOL res 320 416 R0
SYMATTR InstName R5
SYMATTR Value 10k
SYMBOL voltage -16 416 R0
WINDOW 123 0 0 Left 0
WINDOW 39 0 0 Left 0
SYMATTR InstName V1
SYMATTR Value PWL(0 0 0.1 0 0.11 5 1 5)
SYMBOL cap -144 352 R0
SYMATTR InstName C4
SYMATTR Value 1n
SYMBOL res -160 -16 R0
SYMATTR InstName R6
SYMATTR Value 1Meg
SYMBOL voltage -272 -368 R0
WINDOW 123 0 0 Left 0
WINDOW 39 0 0 Left 0
SYMATTR InstName V2
SYMATTR Value 32
SYMBOL res 784 -400 R0
SYMATTR InstName R7
SYMATTR Value 100
SYMBOL cap 896 -368 R0
SYMATTR InstName C5
SYMATTR Value 240µ
SYMBOL res 528 512 R180
WINDOW 0 36 76 Left 2
WINDOW 3 36 40 Left 2
SYMATTR InstName R8
SYMATTR Value 100k
SYMBOL voltage -16 576 R0
WINDOW 123 0 0 Left 0
WINDOW 39 0 0 Left 0
SYMATTR InstName V3
SYMATTR Value 5
SYMBOL voltage 96 576 R0
WINDOW 123 0 0 Left 0
WINDOW 39 0 0 Left 0
SYMATTR InstName V4
SYMATTR Value 5
SYMBOL res 720 272 R90
WINDOW 0 0 56 VBottom 2
WINDOW 3 32 56 VTop 2
SYMATTR InstName R9
SYMATTR Value 10k
SYMBOL res 880 240 R90
WINDOW 0 0 56 VBottom 2
WINDOW 3 32 56 VTop 2
SYMATTR InstName R10
SYMATTR Value 100k
SYMBOL OpAmps\\LT1014 784 288 R0
SYMATTR InstName U2
SYMBOL OpAmps\\LT1014 704 -256 R0
SYMATTR InstName U3
SYMBOL res 592 -368 R0
SYMATTR InstName R11
SYMATTR Value 100k
SYMBOL res 592 -160 R0
SYMATTR InstName R12
SYMATTR Value 10k
SYMBOL Misc\\NE555 1296 -160 R0
SYMATTR InstName U4
SYMBOL cap 1440 -64 R0
SYMATTR InstName C6
SYMATTR Value 0.1µ
SYMBOL cap 1520 -96 R0
SYMATTR InstName C7
SYMATTR Value 0.1µ
SYMBOL res 1520 -320 R0
SYMATTR InstName R13
SYMATTR Value 100k
SYMBOL OpAmps\\LT1014 1120 208 R0
SYMATTR InstName U5
SYMBOL OpAmps\\LT1014 1120 400 R0
SYMATTR InstName U6
SYMBOL voltage 976 288 R0
WINDOW 123 0 0 Left 0
WINDOW 39 0 0 Left 0
SYMATTR InstName V5
SYMATTR Value 0.5
SYMBOL voltage 976 480 R0
WINDOW 123 0 0 Left 0
WINDOW 39 0 0 Left 0
SYMATTR InstName V6
SYMATTR Value 0.1
SYMBOL voltage 528 -304 R0
WINDOW 123 0 0 Left 0
WINDOW 39 0 0 Left 0
SYMATTR InstName V7
SYMATTR Value 2.7
SYMBOL res 944 -208 R90
WINDOW 0 0 56 VBottom 2
WINDOW 3 32 56 VTop 2
SYMATTR InstName R14
SYMATTR Value 10k
SYMBOL res 944 -96 R90
WINDOW 0 0 56 VBottom 2
WINDOW 3 32 56 VTop 2
SYMATTR InstName R15
SYMATTR Value 10k
TEXT -304 536 Left 2 !.tran 1
